AMOSTRA/CAP/GD.dss
! GERACAO DISTRIBUIDA — gerada de UGBT_tab e UGMT_tab
! Unidades com potencia nula sao omitidas (gerariam NaN).
! 486 unidades descartadas por potencia nula.
! 791 unidades de BT realocadas para o secundario do transformador (rede secundaria nao modelada).
! 0 unidades descartadas por ponto de conexao ausente da rede.
! irradiance=1 — ver o docstring: 1,0 e meio-dia de ceu claro, nao a ponta de carga.
! 4 barras tiveram a GD limitada a capacidade do transformador (92 kW cortados).
! inversores em pf=1 — ver o docstring de _pv: 0,92 e capacidade exigida pelo PRODIST, nao despacho.
! 0 unidades de MT ligadas pelo PAC da carga (casadas por CEG_GD): o PAC da UGMT nao existe na SSDMT.
New PVSystem.GD_225ddf6726d19b0710f0ad295c340625eca7f46dc11b19e7c41e312f3972efdd phases=3 bus1=11942-6500922.1.2.3 conn=wye kv=13.8000 pf=1 pmpp=12.34 kva=12.34 irradiance=1 temperature=25 %cutin=20 %cutout=20 effcurve=MyEff P-TCurve=MyPvsT Daily=IRRAD_DIA TDaily=TEMP_DIA
New PVSystem.GD_7f84ed27609b3f9729b054c82d38d68b149d88b1f8414a43d5d679703d9671a0 phases=3 bus1=11924-6499973.1.2.3 conn=wye kv=13.8000 pf=1 pmpp=51.04 kva=51.04 irradiance=1 temperature=25 %cutin=20 %cutout=20 effcurve=MyEff P-TCurve=MyPvsT Daily=IRRAD_DIA TDaily=TEMP_DIA
New PVSystem.GD_7a079220a0cafddf7f187d50cd388db3daad641dfa86d5c21daf4d98845fc84c phases=3 bus1=11942-11318690.1.2.3 conn=wye kv=13.8000 pf=1 pmpp=6.19 kva=6.19 irradiance=1 temperature=25 %cutin=20 %cutout=20 effcurve=MyEff P-TCurve=MyPvsT Daily=IRRAD_DIA TDaily=TEMP_DIA
New PVSystem.GD_8794f8cbd6ecaf7496bea7a6380314504fa4ff9e51d538bd516e99a080efb914 phases=3 bus1=16114-11311154.1.2.3 conn=wye kv=13.8000 pf=1 pmpp=0.16 kva=0.16 irradiance=1 temperature=25 %cutin=20 %cutout=20 effcurve=MyEff P-TCurve=MyPvsT Daily=IRRAD_DIA TDaily=TEMP_DIA
New PVSystem.GD_56bdfef60f9e0e5602b018c2fa40727070397758e0bcc8911e4c948a327198df phases=3 bus1=16114-11460454.1.2.3 conn=wye kv=13.8000 pf=1 pmpp=10.63 kva=10.63 irradiance=1 temperature=25 %cutin=20 %cutout=20 effcurve=MyEff P-TCurve=MyPvsT Daily=IRRAD_DIA TDaily=TEMP_DIA
New PVSystem.GD_b91b0345150f0de37a2857f07551b61de52ac08229f4dcba306a6d3ec42fe27f phases=3 bus1=16114-10917417.1.2.3 conn=wye kv=13.8000 pf=1 pmpp=2.82 kva=2.82 irradiance=1 temperature=25 %cutin=20 %cutout=20 effcurve=MyEff P-TCurve=MyPvsT Daily=IRRAD_DIA TDaily=TEMP_DIA
New PVSystem.GD_761f5c3ea72a64eab0334cb2ede3d8f393deaa18ea22ec746f00e28dafb5fdc2 phases=3 bus1=16114-11986642.1.2.3 conn=wye kv=13.8000 pf=1 pmpp=4.86 kva=4.86 irradiance=1 temperature=25 %cutin=20 %cutout=20 effcurve=MyEff P-TCurve=MyPvsT Daily=IRRAD_DIA TDaily=TEMP_DIA
New PVSystem.GD_3bf0aab42dd882c4f4d9edfe96aa30c92081fa67cc52f24ebac104a66addc6b8 phases=3 bus1=16114-12478497.1.2.3 conn=wye kv=13.8000 pf=1 pmpp=31.68 kva=31.68 irradiance=1 temperature=25 %cutin=20 %cutout=20 effcurve=MyEff P-TCurve=MyPvsT Daily=IRRAD_DIA TDaily=TEMP_DIA
New PVSystem.GD_4b93996a73cb5989ec5800e9be23e0560ee04a80f7d10f8d450c08420bf6509a phases=3 bus1=11958-6602720.1.2.3 conn=wye kv=13.8000 pf=1 pmpp=8.30 kva=8.30 irradiance=1 temperature=25 %cutin=20 %cutout=20 effcurve=MyEff P-TCurve=MyPvsT Daily=IRRAD_DIA TDaily=TEMP_DIA
New PVSystem.GD_96ecd05961ec599d74140c5fc781a910594d58cd371c097915e41c60b37581fc phases=3 bus1=11919-12684237.1.2.3 conn=wye kv=13.8000 pf=1 pmpp=24.83 kva=24.83 irradiance=1 temperature=25 %cutin=20 %cutout=20 effcurve=MyEff P-TCurve=MyPvsT Daily=IRRAD_DIA TDaily=TEMP_DIA
New PVSystem.GD_41146a838858b130224852a060636c2a1b263b1a66102c10442a616f6e199755 phases=3 bus1=11920-11675125.1.2.3 conn=wye kv=13.8000 pf=1 pmpp=11.51 kva=11.51 irradiance=1 temperature=25 %cutin=20 %cutout=20 effcurve=MyEff P-TCurve=MyPvsT Daily=IRRAD_DIA TDaily=TEMP_DIA
New PVSystem.GD_c86cfe638c5a14bcc944cd5d4ea67cfa1e8d163dfb2d7bcd3c88e1510f168f02 phases=3 bus1=11924-12698486.1.2.3 conn=wye kv=13.8000 pf=1 pmpp=19.25 kva=19.25 irradiance=1 temperature=25 %cutin=20 %cutout=20 effcurve=MyEff P-TCurve=MyPvsT Daily=IRRAD_DIA TDaily=TEMP_DIA
New PVSystem.GD_51564a881058047602a760098fbfee07a56edad23378139d2f72bb8fd0e914b8 phases=3 bus1=11919-6478038.1.2.3 conn=wye kv=13.8000 pf=1 pmpp=58.34 kva=58.34 irradiance=1 temperature=25 %cutin=20 %cutout=20 effcurve=MyEff P-TCurve=MyPvsT Daily=IRRAD_DIA TDaily=TEMP_DIA
New PVSystem.GD_787afff65fc6569011026c25cbba4f56e809cd223ae829fa373397be62cdf400 phases=3 bus1=11919-6478417.1.2.3 conn=wye kv=13.8000 pf=1 pmpp=9.42 kva=9.42 irradiance=1 temperature=25 %cutin=20 %cutout=20 effcurve=MyEff P-TCurve=MyPvsT Daily=IRRAD_DIA TDaily=TEMP_DIA
New PVSystem.GD_e0bce5173e2c2e283718365063d1a08992fe39c36569d4622388e7ab65386352 phases=3 bus1=16114-10915609.1.2.3 conn=wye kv=13.8000 pf=1 pmpp=10.85 kva=10.85 irradiance=1 temperature=25 %cutin=20 %cutout=20 effcurve=MyEff P-TCurve=MyPvsT Daily=IRRAD_DIA TDaily=TEMP_DIA
New PVSystem.GD_a61a69117b910459be8c10a967ea51d851fd90bd5349a51d52ced676e5232260 phases=3 bus1=26842-12576596.1.2.3 conn=wye kv=13.8000 pf=1 pmpp=17.38 kva=17.38 irradiance=1 temperature=25 %cutin=20 %cutout=20 effcurve=MyEff P-TCurve=MyPvsT Daily=IRRAD_DIA TDaily=TEMP_DIA
New PVSystem.GD_9202d9ac7ea6be3e41634bca4958292851be0e286fe5f028686f9a96ccc685eb phases=3 bus1=11919-6477914.1.2.3 conn=wye kv=13.8000 pf=1 pmpp=11.31 kva=11.31 irradiance=1 temperature=25 %cutin=20 %cutout=20 effcurve=MyEff P-TCurve=MyPvsT Daily=IRRAD_DIA TDaily=TEMP_DIA
New PVSystem.GD_e3217544ccc05e72a292cb91aa39d3a1d9fa4752bcf20898d35a7e30b9fcd2a7 phases=3 bus1=11942-6502181.1.2.3 conn=wye kv=13.8000 pf=1 pmpp=12.76 kva=12.76 irradiance=1 temperature=25 %cutin=20 %cutout=20 effcurve=MyEff P-TCurve=MyPvsT Daily=IRRAD_DIA TDaily=TEMP_DIA
New PVSystem.GD_390cff88c846980acd45b7ce6a274fe176ea16b7ceccbf9ba6b38f9452bda5ed phases=3 bus1=11920-6486788.1.2.3 conn=wye kv=13.8000 pf=1 pmpp=27.72 kva=27.72 irradiance=1 temperature=25 %cutin=20 %cutout=20 effcurve=MyEff P-TCurve=MyPvsT Daily=IRRAD_DIA TDaily=TEMP_DIA
New PVSystem.GD_0eda00c0581510e3707a2e1cfb7e4c0dd0a14804ca411b9b7d230993097f9547_1 phases=1 bus1=2740968-10685792v.1.4 conn=wye kv=0.1100 pf=1 pmpp=2.68 kva=2.68 irradiance=1 temperature=25 %cutin=20 %cutout=20 effcurve=MyEff P-TCurve=MyPvsT Daily=IRRAD_DIA TDaily=TEMP_DIA
New PVSystem.GD_0eda00c0581510e3707a2e1cfb7e4c0dd0a14804ca411b9b7d230993097f9547_2 phases=1 bus1=2740968-10685792v.2.4 conn=wye kv=0.1100 pf=1 pmpp=2.68 kva=2.68 irradiance=1 temperature=25 %cutin=20 %cutout=20 effcurve=MyEff P-TCurve=MyPvsT Daily=IRRAD_DIA TDaily=TEMP_DIA
New PVSystem.GD_0e9017cb5a46afe59b893ab15851664a1d4462e3e4150c33a2363cc15d812c0c_1 phases=1 bus1=2790085-10916422v.1.4 conn=wye kv=0.1270 pf=1 pmpp=8.69 kva=8.69 irradiance=1 temperature=25 %cutin=20 %cutout=20 effcurve=MyEff P-TCurve=MyPvsT Daily=IRRAD_DIA TDaily=TEMP_DIA
New PVSystem.GD_0e9017cb5a46afe59b893ab15851664a1d4462e3e4150c33a2363cc15d812c0c_2 phases=1 bus1=2790085-10916422v.2.4 conn=wye kv=0.1270 pf=1 pmpp=8.69 kva=8.69 irradiance=1 temperature=25 %cutin=20 %cutout=20 effcurve=MyEff P-TCurve=MyPvsT Daily=IRRAD_DIA TDaily=TEMP_DIA
New PVSystem.GD_0e9017cb5a46afe59b893ab15851664a1d4462e3e4150c33a2363cc15d812c0c_3 phases=1 bus1=2790085-10916422v.3.4 conn=wye kv=0.1270 pf=1 pmpp=8.69 kva=8.69 irradiance=1 temperature=25 %cutin=20 %cutout=20 effcurve=MyEff P-TCurve=MyPvsT Daily=IRRAD_DIA TDaily=TEMP_DIA
New PVSystem.GD_89f3ebc4e4dd3d21dffec2cfe6a754aac69156ec5faf8ec73f3d5080e0a0c473_1 phases=1 bus1=2103524-6662854.1.4 conn=wye kv=0.1100 pf=1 pmpp=0.65 kva=0.65 irradiance=1 temperature=25 %cutin=20 %cutout=20 effcurve=MyEff P-TCurve=MyPvsT Daily=IRRAD_DIA TDaily=TEMP_DIA
New PVSystem.GD_89f3ebc4e4dd3d21dffec2cfe6a754aac69156ec5faf8ec73f3d5080e0a0c473_2 phases=1 bus1=2103524-6662854.2.4 conn=wye kv=0.1100 pf=1 pmpp=0.65 kva=0.65 irradiance=1 temperature=25 %cutin=20 %cutout=20 effcurve=MyEff P-TCurve=MyPvsT Daily=IRRAD_DIA TDaily=TEMP_DIA
New PVSystem.GD_e76ccd6042e4fc702087361002f5b1c7392348b8ee4622f1195d35bbcd1fc986_1 phases=1 bus1=3078120-12209586v.1.4 conn=wye kv=0.1100 pf=1 pmpp=1.30 kva=1.30 irradiance=1 temperature=25 %cutin=20 %cutout=20 effcurve=MyEff P-TCurve=MyPvsT Daily=IRRAD_DIA TDaily=TEMP_DIA
New PVSystem.GD_e76ccd6042e4fc702087361002f5b1c7392348b8ee4622f1195d35bbcd1fc986_2 phases=1 bus1=3078120-12209586v.2.4 conn=wye kv=0.1100 pf=1 pmpp=1.30 kva=1.30 irradiance=1 temperature=25 %cutin=20 %cutout=20 effcurve=MyEff P-TCurve=MyPvsT Daily=IRRAD_DIA TDaily=TEMP_DIA
New PVSystem.GD_3b222dea8a5b69e425de6c391f6d1c98a0421dce147020e0f697df574841dd9e_1 phases=1 bus1=2103665-6663636.1.4 conn=wye kv=0.1100 pf=1 pmpp=0.87 kva=0.87 irradiance=1 temperature=25 %cutin=20 %cutout=20 effcurve=MyEff P-TCurve=MyPvsT Daily=IRRAD_DIA TDaily=TEMP_DIA
New PVSystem.GD_3b222dea8a5b69e425de6c391f6d1c98a0421dce147020e0f697df574841dd9e_2 phases=1 bus1=2103665-6663636.2.4 conn=wye kv=0.1100 pf=1 pmpp=0.87 kva=0.87 irradiance=1 temperature=25 %cutin=20 %cutout=20 effcurve=MyEff P-TCurve=MyPvsT Daily=IRRAD_DIA TDaily=TEMP_DIA
New PVSystem.GD_19617703f03d0cb02378ed8ad911cb261ec50b2b009348ed099b4dc8f92d96b8_1 phases=1 bus1=3022831-11855544.1.4 conn=wye kv=0.1270 pf=1 pmpp=3.44 kva=3.44 irradiance=1 temperature=25 %cutin=20 %cutout=20 effcurve=MyEff P-TCurve=MyPvsT Daily=IRRAD_DIA TDaily=TEMP_DIA
New PVSystem.GD_19617703f03d0cb02378ed8ad911cb261ec50b2b009348ed099b4dc8f92d96b8_2 phases=1 bus1=3022831-11855544.2.4 conn=wye kv=0.1270 pf=1 pmpp=3.44 kva=3.44 irradiance=1 temperature=25 %cutin=20 %cutout=20 effcurve=MyEff P-TCurve=MyPvsT Daily=IRRAD_DIA TDaily=TEMP_DIA
New PVSystem.GD_19617703f03d0cb02378ed8ad911cb261ec50b2b009348ed099b4dc8f92d96b8_3 phases=1 bus1=3022831-11855544.3.4 conn=wye kv=0.1270 pf=1 pmpp=3.44 kva=3.44 irradiance=1 temperature=25 %cutin=20 %cutout=20 effcurve=MyEff P-TCurve=MyPvsT Daily=IRRAD_DIA TDaily=TEMP_DIA
New PVSystem.GD_e3dc5a9fba5bf95e3a859fcb1812e2cf8185f7689e05dae5afa0f7e17c4ed53c_1 phases=1 bus1=3022831-11855544.1.4 conn=wye kv=0.1270 pf=1 pmpp=8.81 kva=8.81 irradiance=1 temperature=25 %cutin=20 %cutout=20 effcurve=MyEff P-TCurve=MyPvsT Daily=IRRAD_DIA TDaily=TEMP_DIA
New PVSystem.GD_e3dc5a9fba5bf95e3a859fcb1812e2cf8185f7689e05dae5afa0f7e17c4ed53c_2 phases=1 bus1=3022831-11855544.2.4 conn=wye kv=0.1270 pf=1 pmpp=8.81 kva=8.81 irradiance=1 temperature=25 %cutin=20 %cutout=20 effcurve=MyEff P-TCurve=MyPvsT Daily=IRRAD_DIA TDaily=TEMP_DIA
New PVSystem.GD_e3dc5a9fba5bf95e3a859fcb1812e2cf8185f7689e05dae5afa0f7e17c4ed53c_3 phases=1 bus1=3022831-11855544.3.4 conn=wye kv=0.1270 pf=1 pmpp=8.81 kva=8.81 irradiance=1 temperature=25 %cutin=20 %cutout=20 effcurve=MyEff P-TCurve=MyPvsT Daily=IRRAD_DIA TDaily=TEMP_DIA
New PVSystem.GD_47ffcb5877d057a123aca5026a0a93aa43c0aaca600db29f92a139b70f08e2fe_1 phases=1 bus1=2716313-10561701.1.4 conn=wye kv=0.1270 pf=1 pmpp=1.96 kva=1.96 irradiance=1 temperature=25 %cutin=20 %cutout=20 effcurve=MyEff P-TCurve=MyPvsT Daily=IRRAD_DIA TDaily=TEMP_DIA
New PVSystem.GD_47ffcb5877d057a123aca5026a0a93aa43c0aaca600db29f92a139b70f08e2fe_2 phases=1 bus1=2716313-10561701.2.4 conn=wye kv=0.1270 pf=1 pmpp=1.96 kva=1.96 irradiance=1 temperature=25 %cutin=20 %cutout=20 effcurve=MyEff P-TCurve=MyPvsT Daily=IRRAD_DIA TDaily=TEMP_DIA
New PVSystem.GD_47ffcb5877d057a123aca5026a0a93aa43c0aaca600db29f92a139b70f08e2fe_3 phases=1 bus1=2716313-10561701.3.4 conn=wye kv=0.1270 pf=1 pmpp=1.96 kva=1.96 irradiance=1 temperature=25 %cutin=20 %cutout=20 effcurve=MyEff P-TCurve=MyPvsT Daily=IRRAD_DIA TDaily=TEMP_DIA
New PVSystem.GD_a97f74d2229d6b82096e663732c3c67d7fb8e981fe93a0969885c622828c7626_1 phases=1 bus1=2080621-6478133.1.4 conn=wye kv=0.1270 pf=1 pmpp=0.80 kva=0.80 irradiance=1 temperature=25 %cutin=20 %cutout=20 effcurve=MyEff P-TCurve=MyPvsT Daily=IRRAD_DIA TDaily=TEMP_DIA
New PVSystem.GD_a97f74d2229d6b82096e663732c3c67d7fb8e981fe93a0969885c622828c7626_2 phases=1 bus1=2080621-6478133.2.4 conn=wye kv=0.1270 pf=1 pmpp=0.80 kva=0.80 irradiance=1 temperature=25 %cutin=20 %cutout=20 effcurve=MyEff P-TCurve=MyPvsT Daily=IRRAD_DIA TDaily=TEMP_DIA
New PVSystem.GD_a97f74d2229d6b82096e663732c3c67d7fb8e981fe93a0969885c622828c7626_3 phases=1 bus1=2080621-6478133.3.4 conn=wye kv=0.1270 pf=1 pmpp=0.80 kva=0.80 irradiance=1 temperature=25 %cutin=20 %cutout=20 effcurve=MyEff P-TCurve=MyPvsT Daily=IRRAD_DIA TDaily=TEMP_DIA
New PVSystem.GD_df005d4a248b6dfb8bd1defd1370b5863bb00bab6eee7a0af735d92f83a7c9b2_1 phases=1 bus1=2080621-6478133.1.4 conn=wye kv=0.1270 pf=1 pmpp=0.48 kva=0.48 irradiance=1 temperature=25 %cutin=20 %cutout=20 effcurve=MyEff P-TCurve=MyPvsT Daily=IRRAD_DIA TDaily=TEMP_DIA
New PVSystem.GD_df005d4a248b6dfb8bd1defd1370b5863bb00bab6eee7a0af735d92f83a7c9b2_2 phases=1 bus1=2080621-6478133.2.4 conn=wye kv=0.1270 pf=1 pmpp=0.48 kva=0.48 irradiance=1 temperature=25 %cutin=20 %cutout=20 effcurve=MyEff P-TCurve=MyPvsT Daily=IRRAD_DIA TDaily=TEMP_DIA
New PVSystem.GD_df005d4a248b6dfb8bd1defd1370b5863bb00bab6eee7a0af735d92f83a7c9b2_3 phases=1 bus1=2080621-6478133.3.4 conn=wye kv=0.1270 pf=1 pmpp=0.48 kva=0.48 irradiance=1 temperature=25 %cutin=20 %cutout=20 effcurve=MyEff P-TCurve=MyPvsT Daily=IRRAD_DIA TDaily=TEMP_DIA
New PVSystem.GD_a1408c40df5ba7e956c22b974f211b455da80af34f4fe1d69478dde2b1f92f2f_1 phases=1 bus1=2080621-6478133.1.4 conn=wye kv=0.1270 pf=1 pmpp=0.64 kva=0.64 irradiance=1 temperature=25 %cutin=20 %cutout=20 effcurve=MyEff P-TCurve=MyPvsT Daily=IRRAD_DIA TDaily=TEMP_DIA
New PVSystem.GD_a1408c40df5ba7e956c22b974f211b455da80af34f4fe1d69478dde2b1f92f2f_2 phases=1 bus1=2080621-6478133.2.4 conn=wye kv=0.1270 pf=1 pmpp=0.64 kva=0.64 irradiance=1 temperature=25 %cutin=20 %cutout=20 effcurve=MyEff P-TCurve=MyPvsT Daily=IRRAD_DIA TDaily=TEMP_DIA
New PVSystem.GD_a1408c40df5ba7e956c22b974f211b455da80af34f4fe1d69478dde2b1f92f2f_3 phases=1 bus1=2080621-6478133.3.4 conn=wye kv=0.1270 pf=1 pmpp=0.64 kva=0.64 irradiance=1 temperature=25 %cutin=20 %cutout=20 effcurve=MyEff P-TCurve=MyPvsT Daily=IRRAD_DIA TDaily=TEMP_DIA
New PVSystem.GD_abbd09fe8c0ee753dec998b88ace5a5e284062cb23e3e28bfed75ad92bd54fda_1 phases=1 bus1=2080621-6478133.1.4 conn=wye kv=0.1270 pf=1 pmpp=1.93 kva=1.93 irradiance=1 temperature=25 %cutin=20 %cutout=20 effcurve=MyEff P-TCurve=MyPvsT Daily=IRRAD_DIA TDaily=TEMP_DIA
New PVSystem.GD_abbd09fe8c0ee753dec998b88ace5a5e284062cb23e3e28bfed75ad92bd54fda_2 phases=1 bus1=2080621-6478133.2.4 conn=wye kv=0.1270 pf=1 pmpp=1.93 kva=1.93 irradiance=1 temperature=25 %cutin=20 %cutout=20 effcurve=MyEff P-TCurve=MyPvsT Daily=IRRAD_DIA TDaily=TEMP_DIA
New PVSystem.GD_abbd09fe8c0ee753dec998b88ace5a5e284062cb23e3e28bfed75ad92bd54fda_3 phases=1 bus1=2080621-6478133.3.4 conn=wye kv=0.1270 pf=1 pmpp=1.93 kva=1.93 irradiance=1 temperature=25 %cutin=20 %cutout=20 effcurve=MyEff P-TCurve=MyPvsT Daily=IRRAD_DIA TDaily=TEMP_DIA
New PVSystem.GD_7396ff0c395a4fe2830fb084e0962ae0ad83b2e88715ceb90a6f9a239f0c3d05_1 phases=1 bus1=2083415-6500906.1.4 conn=wye kv=0.1270 pf=1 pmpp=1.04 kva=1.04 irradiance=1 temperature=25 %cutin=20 %cutout=20 effcurve=MyEff P-TCurve=MyPvsT Daily=IRRAD_DIA TDaily=TEMP_DIA
New PVSystem.GD_7396ff0c395a4fe2830fb084e0962ae0ad83b2e88715ceb90a6f9a239f0c3d05_2 phases=1 bus1=2083415-6500906.2.4 conn=wye kv=0.1270 pf=1 pmpp=1.04 kva=1.04 irradiance=1 temperature=25 %cutin=20 %cutout=20 effcurve=MyEff P-TCurve=MyPvsT Daily=IRRAD_DIA TDaily=TEMP_DIA
New PVSystem.GD_7396ff0c395a4fe2830fb084e0962ae0ad83b2e88715ceb90a6f9a239f0c3d05_3 phases=1 bus1=2083415-6500906.3.4 conn=wye kv=0.1270 pf=1 pmpp=1.04 kva=1.04 irradiance=1 temperature=25 %cutin=20 %cutout=20 effcurve=MyEff P-TCurve=MyPvsT Daily=IRRAD_DIA TDaily=TEMP_DIA
New PVSystem.GD_2eeda447e3bacf42ca71c4fd0b2f6e1e576501f1447d1ebca53b36a650a6f3dd_1 phases=1 bus1=2083415-6500906.1.4 conn=wye kv=0.1270 pf=1 pmpp=0.31 kva=0.31 irradiance=1 temperature=25 %cutin=20 %cutout=20 effcurve=MyEff P-TCurve=MyPvsT Daily=IRRAD_DIA TDaily=TEMP_DIA
New PVSystem.GD_2eeda447e3bacf42ca71c4fd0b2f6e1e576501f1447d1ebca53b36a650a6f3dd_2 phases=1 bus1=2083415-6500906.2.4 conn=wye kv=0.1270 pf=1 pmpp=0.31 kva=0.31 irradiance=1 temperature=25 %cutin=20 %cutout=20 effcurve=MyEff P-TCurve=MyPvsT Daily=IRRAD_DIA TDaily=TEMP_DIA
New PVSystem.GD_2eeda447e3bacf42ca71c4fd0b2f6e1e576501f1447d1ebca53b36a650a6f3dd_3 phases=1 bus1=2083415-6500906.3.4 conn=wye kv=0.1270 pf=1 pmpp=0.31 kva=0.31 irradiance=1 temperature=25 %cutin=20 %cutout=20 effcurve=MyEff P-TCurve=MyPvsT Daily=IRRAD_DIA TDaily=TEMP_DIA
New PVSystem.GD_7b132951ae365d929f5990fc48ddc14713095d4543c82fcd9327e02dbe8bb0c1_1 phases=1 bus1=2083415-6500906.1.4 conn=wye kv=0.1270 pf=1 pmpp=0.83 kva=0.83 irradiance=1 temperature=25 %cutin=20 %cutout=20 effcurve=MyEff P-TCurve=MyPvsT Daily=IRRAD_DIA TDaily=TEMP_DIA
New PVSystem.GD_7b132951ae365d929f5990fc48ddc14713095d4543c82fcd9327e02dbe8bb0c1_2 phases=1 bus1=2083415-6500906.2.4 conn=wye kv=0.1270 pf=1 pmpp=0.83 kva=0.83 irradiance=1 temperature=25 %cutin=20 %cutout=20 effcurve=MyEff P-TCurve=MyPvsT Daily=IRRAD_DIA TDaily=TEMP_DIA
New PVSystem.GD_7b132951ae365d929f5990fc48ddc14713095d4543c82fcd9327e02dbe8bb0c1_3 phases=1 bus1=2083415-6500906.3.4 conn=wye kv=0.1270 pf=1 pmpp=0.83 kva=0.83 irradiance=1 temperature=25 %cutin=20 %cutout=20 effcurve=MyEff P-TCurve=MyPvsT Daily=IRRAD_DIA TDaily=TEMP_DIA
New PVSystem.GD_36f65d55d6f6985ae56daf4346bb9693e72b7744371677cfa86b5ce596ad9944_1 phases=1 bus1=2083415-6500906.1.4 conn=wye kv=0.1270 pf=1 pmpp=0.75 kva=0.75 irradiance=1 temperature=25 %cutin=20 %cutout=20 effcurve=MyEff P-TCurve=MyPvsT Daily=IRRAD_DIA TDaily=TEMP_DIA
New PVSystem.GD_36f65d55d6f6985ae56daf4346bb9693e72b7744371677cfa86b5ce596ad9944_2 phases=1 bus1=2083415-6500906.2.4 conn=wye kv=0.1270 pf=1 pmpp=0.75 kva=0.75 irradiance=1 temperature=25 %cutin=20 %cutout=20 effcurve=MyEff P-TCurve=MyPvsT Daily=IRRAD_DIA TDaily=TEMP_DIA
New PVSystem.GD_36f65d55d6f6985ae56daf4346bb9693e72b7744371677cfa86b5ce596ad9944_3 phases=1 bus1=2083415-6500906.3.4 conn=wye kv=0.1270 pf=1 pmpp=0.75 kva=0.75 irradiance=1 temperature=25 %cutin=20 %cutout=20 effcurve=MyEff P-TCurve=MyPvsT Daily=IRRAD_DIA TDaily=TEMP_DIA
New PVSystem.GD_3fbc6db8c84770fd71d8dff93622a504c7872012fea03789f418749fef1cf612_1 phases=1 bus1=2083415-6500906.1.4 conn=wye kv=0.1270 pf=1 pmpp=0.81 kva=0.81 irradiance=1 temperature=25 %cutin=20 %cutout=20 effcurve=MyEff P-TCurve=MyPvsT Daily=IRRAD_DIA TDaily=TEMP_DIA
New PVSystem.GD_3fbc6db8c84770fd71d8dff93622a504c7872012fea03789f418749fef1cf612_2 phases=1 bus1=2083415-6500906.2.4 conn=wye kv=0.1270 pf=1 pmpp=0.81 kva=0.81 irradiance=1 temperature=25 %cutin=20 %cutout=20 effcurve=MyEff P-TCurve=MyPvsT Daily=IRRAD_DIA TDaily=TEMP_DIA
New PVSystem.GD_3fbc6db8c84770fd71d8dff93622a504c7872012fea03789f418749fef1cf612_3 phases=1 bus1=2083415-6500906.3.4 conn=wye kv=0.1270 pf=1 pmpp=0.81 kva=0.81 irradiance=1 temperature=25 %cutin=20 %cutout=20 effcurve=MyEff P-TCurve=MyPvsT Daily=IRRAD_DIA TDaily=TEMP_DIA
New PVSystem.GD_9b1179275ddac080fa81065c992d22c826ac2e21a16ff39805a8877e1a984598_1 phases=1 bus1=2083415-6500906.1.4 conn=wye kv=0.1270 pf=1 pmpp=0.51 kva=0.51 irradiance=1 temperature=25 %cutin=20 %cutout=20 effcurve=MyEff P-TCurve=MyPvsT Daily=IRRAD_DIA TDaily=TEMP_DIA
New PVSystem.GD_9b1179275ddac080fa81065c992d22c826ac2e21a16ff39805a8877e1a984598_2 phases=1 bus1=2083415-6500906.2.4 conn=wye kv=0.1270 pf=1 pmpp=0.51 kva=0.51 irradiance=1 temperature=25 %cutin=20 %cutout=20 effcurve=MyEff P-TCurve=MyPvsT Daily=IRRAD_DIA TDaily=TEMP_DIA
New PVSystem.GD_9b1179275ddac080fa81065c992d22c826ac2e21a16ff39805a8877e1a984598_3 phases=1 bus1=2083415-6500906.3.4 conn=wye kv=0.1270 pf=1 pmpp=0.51 kva=0.51 irradiance=1 temperature=25 %cutin=20 %cutout=20 effcurve=MyEff P-TCurve=MyPvsT Daily=IRRAD_DIA TDaily=TEMP_DIA
New PVSystem.GD_4743009cf55b5af3b4fc662cbeb8c52f1ba0e70c67524645e30cfe2856cf3897_1 phases=1 bus1=2080619-11367508.1.4 conn=wye kv=0.1270 pf=1 pmpp=5.21 kva=5.21 irradiance=1 temperature=25 %cutin=20 %cutout=20 effcurve=MyEff P-TCurve=MyPvsT Daily=IRRAD_DIA TDaily=TEMP_DIA
New PVSystem.GD_4743009cf55b5af3b4fc662cbeb8c52f1ba0e70c67524645e30cfe2856cf3897_2 phases=1 bus1=2080619-11367508.2.4 conn=wye kv=0.1270 pf=1 pmpp=5.21 kva=5.21 irradiance=1 temperature=25 %cutin=20 %cutout=20 effcurve=MyEff P-TCurve=MyPvsT Daily=IRRAD_DIA TDaily=TEMP_DIA
New PVSystem.GD_4743009cf55b5af3b4fc662cbeb8c52f1ba0e70c67524645e30cfe2856cf3897_3 phases=1 bus1=2080619-11367508.3.4 conn=wye kv=0.1270 pf=1 pmpp=5.21 kva=5.21 irradiance=1 temperature=25 %cutin=20 %cutout=20 effcurve=MyEff P-TCurve=MyPvsT Daily=IRRAD_DIA TDaily=TEMP_DIA
New PVSystem.GD_57c9a3affcbd88e30683a41a03e617a3e4e8dcf6d1f5f8e339b330064c39f7d9_1 phases=1 bus1=2080619-11367508.1.4 conn=wye kv=0.1270 pf=1 pmpp=0.41 kva=0.41 irradiance=1 temperature=25 %cutin=20 %cutout=20 effcurve=MyEff P-TCurve=MyPvsT Daily=IRRAD_DIA TDaily=TEMP_DIA
New PVSystem.GD_57c9a3affcbd88e30683a41a03e617a3e4e8dcf6d1f5f8e339b330064c39f7d9_2 phases=1 bus1=2080619-11367508.2.4 conn=wye kv=0.1270 pf=1 pmpp=0.41 kva=0.41 irradiance=1 temperature=25 %cutin=20 %cutout=20 effcurve=MyEff P-TCurve=MyPvsT Daily=IRRAD_DIA TDaily=TEMP_DIA
New PVSystem.GD_57c9a3affcbd88e30683a41a03e617a3e4e8dcf6d1f5f8e339b330064c39f7d9_3 phases=1 bus1=2080619-11367508.3.4 conn=wye kv=0.1270 pf=1 pmpp=0.41 kva=0.41 irradiance=1 temperature=25 %cutin=20 %cutout=20 effcurve=MyEff P-TCurve=MyPvsT Daily=IRRAD_DIA TDaily=TEMP_DIA
New PVSystem.GD_092a1caec5d1625fcef457d8b0a6018e972aca964cb29f8cd01515018ae77676_1 phases=1 bus1=3164177-12770495.1.4 conn=wye kv=0.1270 pf=1 pmpp=0.79 kva=0.79 irradiance=1 temperature=25 %cutin=20 %cutout=20 effcurve=MyEff P-TCurve=MyPvsT Daily=IRRAD_DIA TDaily=TEMP_DIA
New PVSystem.GD_092a1caec5d1625fcef457d8b0a6018e972aca964cb29f8cd01515018ae77676_2 phases=1 bus1=3164177-12770495.2.4 conn=wye kv=0.1270 pf=1 pmpp=0.79 kva=0.79 irradiance=1 temperature=25 %cutin=20 %cutout=20 effcurve=MyEff P-TCurve=MyPvsT Daily=IRRAD_DIA TDaily=TEMP_DIA
New PVSystem.GD_092a1caec5d1625fcef457d8b0a6018e972aca964cb29f8cd01515018ae77676_3 phases=1 bus1=3164177-12770495.3.4 conn=wye kv=0.1270 pf=1 pmpp=0.79 kva=0.79 irradiance=1 temperature=25 %cutin=20 %cutout=20 effcurve=MyEff P-TCurve=MyPvsT Daily=IRRAD_DIA TDaily=TEMP_DIA
New PVSystem.GD_1cef3b69be416154ba9cf55bc7a9a597a8e173098ed48fa6ee1ceec5397859f1_1 phases=1 bus1=3164177-12770495.1.4 conn=wye kv=0.1270 pf=1 pmpp=0.34 kva=0.34 irradiance=1 temperature=25 %cutin=20 %cutout=20 effcurve=MyEff P-TCurve=MyPvsT Daily=IRRAD_DIA TDaily=TEMP_DIA
New PVSystem.GD_1cef3b69be416154ba9cf55bc7a9a597a8e173098ed48fa6ee1ceec5397859f1_2 phases=1 bus1=3164177-12770495.2.4 conn=wye kv=0.1270 pf=1 pmpp=0.34 kva=0.34 irradiance=1 temperature=25 %cutin=20 %cutout=20 effcurve=MyEff P-TCurve=MyPvsT Daily=IRRAD_DIA TDaily=TEMP_DIA
New PVSystem.GD_1cef3b69be416154ba9cf55bc7a9a597a8e173098ed48fa6ee1ceec5397859f1_3 phases=1 bus1=3164177-12770495.3.4 conn=wye kv=0.1270 pf=1 pmpp=0.34 kva=0.34 irradiance=1 temperature=25 %cutin=20 %cutout=20 effcurve=MyEff P-TCurve=MyPvsT Daily=IRRAD_DIA TDaily=TEMP_DIA
New PVSystem.GD_27daeca67a5a2c4fed79811ce0d4a185dd49e2b776a36583f09441af53cbfda5_1 phases=1 bus1=2080618-6478499.1.4 conn=wye kv=0.1270 pf=1 pmpp=0.33 kva=0.33 irradiance=1 temperature=25 %cutin=20 %cutout=20 effcurve=MyEff P-TCurve=MyPvsT Daily=IRRAD_DIA TDaily=TEMP_DIA
New PVSystem.GD_27daeca67a5a2c4fed79811ce0d4a185dd49e2b776a36583f09441af53cbfda5_2 phases=1 bus1=2080618-6478499.2.4 conn=wye kv=0.1270 pf=1 pmpp=0.33 kva=0.33 irradiance=1 temperature=25 %cutin=20 %cutout=20 effcurve=MyEff P-TCurve=MyPvsT Daily=IRRAD_DIA TDaily=TEMP_DIA
New PVSystem.GD_27daeca67a5a2c4fed79811ce0d4a185dd49e2b776a36583f09441af53cbfda5_3 phases=1 bus1=2080618-6478499.3.4 conn=wye kv=0.1270 pf=1 pmpp=0.33 kva=0.33 irradiance=1 temperature=25 %cutin=20 %cutout=20 effcurve=MyEff P-TCurve=MyPvsT Daily=IRRAD_DIA TDaily=TEMP_DIA
New PVSystem.GD_16de1a5163739cf7046a53bc47a53796b02e435b2af5ec542301e7fd158f97a0_1 phases=1 bus1=2080618-6478499.1.4 conn=wye kv=0.1270 pf=1 pmpp=0.31 kva=0.31 irradiance=1 temperature=25 %cutin=20 %cutout=20 effcurve=MyEff P-TCurve=MyPvsT Daily=IRRAD_DIA TDaily=TEMP_DIA
New PVSystem.GD_16de1a5163739cf7046a53bc47a53796b02e435b2af5ec542301e7fd158f97a0_2 phases=1 bus1=2080618-6478499.2.4 conn=wye kv=0.1270 pf=1 pmpp=0.31 kva=0.31 irradiance=1 temperature=25 %cutin=20 %cutout=20 effcurve=MyEff P-TCurve=MyPvsT Daily=IRRAD_DIA TDaily=TEMP_DIA
New PVSystem.GD_16de1a5163739cf7046a53bc47a53796b02e435b2af5ec542301e7fd158f97a0_3 phases=1 bus1=2080618-6478499.3.4 conn=wye kv=0.1270 pf=1 pmpp=0.31 kva=0.31 irradiance=1 temperature=25 %cutin=20 %cutout=20 effcurve=MyEff P-TCurve=MyPvsT Daily=IRRAD_DIA TDaily=TEMP_DIA
New PVSystem.GD_364c3dd289973dea32d74d529958bf4a462fbd175c387adbe99e22da3d3edb6c_1 phases=1 bus1=2080618-6478499.1.4 conn=wye kv=0.1270 pf=1 pmpp=0.95 kva=0.95 irradiance=1 temperature=25 %cutin=20 %cutout=20 effcurve=MyEff P-TCurve=MyPvsT Daily=IRRAD_DIA TDaily=TEMP_DIA
New PVSystem.GD_364c3dd289973dea32d74d529958bf4a462fbd175c387adbe99e22da3d3edb6c_2 phases=1 bus1=2080618-6478499.2.4 conn=wye kv=0.1270 pf=1 pmpp=0.95 kva=0.95 irradiance=1 temperature=25 %cutin=20 %cutout=20 effcurve=MyEff P-TCurve=MyPvsT Daily=IRRAD_DIA TDaily=TEMP_DIA
New PVSystem.GD_364c3dd289973dea32d74d529958bf4a462fbd175c387adbe99e22da3d3edb6c_3 phases=1 bus1=2080618-6478499.3.4 conn=wye kv=0.1270 pf=1 pmpp=0.95 kva=0.95 irradiance=1 temperature=25 %cutin=20 %cutout=20 effcurve=MyEff P-TCurve=MyPvsT Daily=IRRAD_DIA TDaily=TEMP_DIA
New PVSystem.GD_2d0c7b13dbbb478fbdc5163493d9a460e8b18f8ced626a2cee379b6aece270ee_1 phases=1 bus1=2080618-6478499.1.4 conn=wye kv=0.1270 pf=1 pmpp=0.70 kva=0.70 irradiance=1 temperature=25 %cutin=20 %cutout=20 effcurve=MyEff P-TCurve=MyPvsT Daily=IRRAD_DIA TDaily=TEMP_DIA
New PVSystem.GD_2d0c7b13dbbb478fbdc5163493d9a460e8b18f8ced626a2cee379b6aece270ee_2 phases=1 bus1=2080618-6478499.2.4 conn=wye kv=0.1270 pf=1 pmpp=0.70 kva=0.70 irradiance=1 temperature=25 %cutin=20 %cutout=20 effcurve=MyEff P-TCurve=MyPvsT Daily=IRRAD_DIA TDaily=TEMP_DIA
New PVSystem.GD_2d0c7b13dbbb478fbdc5163493d9a460e8b18f8ced626a2cee379b6aece270ee_3 phases=1 bus1=2080618-6478499.3.4 conn=wye kv=0.1270 pf=1 pmpp=0.70 kva=0.70 irradiance=1 temperature=25 %cutin=20 %cutout=20 effcurve=MyEff P-TCurve=MyPvsT Daily=IRRAD_DIA TDaily=TEMP_DIA
New PVSystem.GD_939afd4a7788ffa647e9c5a7e8b8a5868eb410bed67d139060f75928d5679863_1 phases=1 bus1=2080618-6478499.1.4 conn=wye kv=0.1270 pf=1 pmpp=1.65 kva=1.65 irradiance=1 temperature=25 %cutin=20 %cutout=20 effcurve=MyEff P-TCurve=MyPvsT Daily=IRRAD_DIA TDaily=TEMP_DIA
New PVSystem.GD_939afd4a7788ffa647e9c5a7e8b8a5868eb410bed67d139060f75928d5679863_2 phases=1 bus1=2080618-6478499.2.4 conn=wye kv=0.1270 pf=1 pmpp=1.65 kva=1.65 irradiance=1 temperature=25 %cutin=20 %cutout=20 effcurve=MyEff P-TCurve=MyPvsT Daily=IRRAD_DIA TDaily=TEMP_DIA
New PVSystem.GD_939afd4a7788ffa647e9c5a7e8b8a5868eb410bed67d139060f75928d5679863_3 phases=1 bus1=2080618-6478499.3.4 conn=wye kv=0.1270 pf=1 pmpp=1.65 kva=1.65 irradiance=1 temperature=25 %cutin=20 %cutout=20 effcurve=MyEff P-TCurve=MyPvsT Daily=IRRAD_DIA TDaily=TEMP_DIA
New PVSystem.GD_b8a55aa313f235e7deacdbf781e903768f8cd3d37b1fa8efdcd4d71e2788936b_1 phases=1 bus1=2080618-6478499.1.4 conn=wye kv=0.1270 pf=1 pmpp=0.33 kva=0.33 irradiance=1 temperature=25 %cutin=20 %cutout=20 effcurve=MyEff P-TCurve=MyPvsT Daily=IRRAD_DIA TDaily=TEMP_DIA
New PVSystem.GD_b8a55aa313f235e7deacdbf781e903768f8cd3d37b1fa8efdcd4d71e2788936b_2 phases=1 bus1=2080618-6478499.2.4 conn=wye kv=0.1270 pf=1 pmpp=0.33 kva=0.33 irradiance=1 temperature=25 %cutin=20 %cutout=20 effcurve=MyEff P-TCurve=MyPvsT Daily=IRRAD_DIA TDaily=TEMP_DIA
New PVSystem.GD_b8a55aa313f235e7deacdbf781e903768f8cd3d37b1fa8efdcd4d71e2788936b_3 phases=1 bus1=2080618-6478499.3.4 conn=wye kv=0.1270 pf=1 pmpp=0.33 kva=0.33 irradiance=1 temperature=25 %cutin=20 %cutout=20 effcurve=MyEff P-TCurve=MyPvsT Daily=IRRAD_DIA TDaily=TEMP_DIA
New PVSystem.GD_3694440b62af17cf42ae1edac4cc154b1b3e9bfd7c04913a63512de0e9bd365f_1 phases=1 bus1=2080618-6478499.1.4 conn=wye kv=0.1270 pf=1 pmpp=2.04 kva=2.04 irradiance=1 temperature=25 %cutin=20 %cutout=20 effcurve=MyEff P-TCurve=MyPvsT Daily=IRRAD_DIA TDaily=TEMP_DIA
New PVSystem.GD_3694440b62af17cf42ae1edac4cc154b1b3e9bfd7c04913a63512de0e9bd365f_2 phases=1 bus1=2080618-6478499.2.4 conn=wye kv=0.1270 pf=1 pmpp=2.04 kva=2.04 irradiance=1 temperature=25 %cutin=20 %cutout=20 effcurve=MyEff P-TCurve=MyPvsT Daily=IRRAD_DIA TDaily=TEMP_DIA
New PVSystem.GD_3694440b62af17cf42ae1edac4cc154b1b3e9bfd7c04913a63512de0e9bd365f_3 phases=1 bus1=2080618-6478499.3.4 conn=wye kv=0.1270 pf=1 pmpp=2.04 kva=2.04 irradiance=1 temperature=25 %cutin=20 %cutout=20 effcurve=MyEff P-TCurve=MyPvsT Daily=IRRAD_DIA TDaily=TEMP_DIA
New PVSystem.GD_743da6298562e18d403877aff93e4a70986472295e2b49d430de17cd382174d3_1 phases=1 bus1=2080618-6478499.1.4 conn=wye kv=0.1270 pf=1 pmpp=0.52 kva=0.52 irradiance=1 temperature=25 %cutin=20 %cutout=20 effcurve=MyEff P-TCurve=MyPvsT Daily=IRRAD_DIA TDaily=TEMP_DIA
New PVSystem.GD_743da6298562e18d403877aff93e4a70986472295e2b49d430de17cd382174d3_2 phases=1 bus1=2080618-6478499.2.4 conn=wye kv=0.1270 pf=1 pmpp=0.52 kva=0.52 irradiance=1 temperature=25 %cutin=20 %cutout=20 effcurve=MyEff P-TCurve=MyPvsT Daily=IRRAD_DIA TDaily=TEMP_DIA
New PVSystem.GD_743da6298562e18d403877aff93e4a70986472295e2b49d430de17cd382174d3_3 phases=1 bus1=2080618-6478499.3.4 conn=wye kv=0.1270 pf=1 pmpp=0.52 kva=0.52 irradiance=1 temperature=25 %cutin=20 %cutout=20 effcurve=MyEff P-TCurve=MyPvsT Daily=IRRAD_DIA TDaily=TEMP_DIA
New PVSystem.GD_54e59c349e86143a402daa08331ae18df51cfcc35c396848d5961f514aaf637c_1 phases=1 bus1=2080618-6478499.1.4 conn=wye kv=0.1270 pf=1 pmpp=1.11 kva=1.11 irradiance=1 temperature=25 %cutin=20 %cutout=20 effcurve=MyEff P-TCurve=MyPvsT Daily=IRRAD_DIA TDaily=TEMP_DIA
New PVSystem.GD_54e59c349e86143a402daa08331ae18df51cfcc35c396848d5961f514aaf637c_2 phases=1 bus1=2080618-6478499.2.4 conn=wye kv=0.1270 pf=1 pmpp=1.11 kva=1.11 irradiance=1 temperature=25 %cutin=20 %cutout=20 effcurve=MyEff P-TCurve=MyPvsT Daily=IRRAD_DIA TDaily=TEMP_DIA
New PVSystem.GD_54e59c349e86143a402daa08331ae18df51cfcc35c396848d5961f514aaf637c_3 phases=1 bus1=2080618-6478499.3.4 conn=wye kv=0.1270 pf=1 pmpp=1.11 kva=1.11 irradiance=1 temperature=25 %cutin=20 %cutout=20 effcurve=MyEff P-TCurve=MyPvsT Daily=IRRAD_DIA TDaily=TEMP_DIA
New PVSystem.GD_5a19846eef3da8b59dc357bcdd87a0d9ca0ebd8a32458e57aff065c0581da668_1 phases=1 bus1=2080618-6478499.1.4 conn=wye kv=0.1270 pf=1 pmpp=0.50 kva=0.50 irradiance=1 temperature=25 %cutin=20 %cutout=20 effcurve=MyEff P-TCurve=MyPvsT Daily=IRRAD_DIA TDaily=TEMP_DIA
New PVSystem.GD_5a19846eef3da8b59dc357bcdd87a0d9ca0ebd8a32458e57aff065c0581da668_2 phases=1 bus1=2080618-6478499.2.4 conn=wye kv=0.1270 pf=1 pmpp=0.50 kva=0.50 irradiance=1 temperature=25 %cutin=20 %cutout=20 effcurve=MyEff P-TCurve=MyPvsT Daily=IRRAD_DIA TDaily=TEMP_DIA
New PVSystem.GD_5a19846eef3da8b59dc357bcdd87a0d9ca0ebd8a32458e57aff065c0581da668_3 phases=1 bus1=2080618-6478499.3.4 conn=wye kv=0.1270 pf=1 pmpp=0.50 kva=0.50 irradiance=1 temperature=25 %cutin=20 %cutout=20 effcurve=MyEff P-TCurve=MyPvsT Daily=IRRAD_DIA TDaily=TEMP_DIA
New PVSystem.GD_d0822f8e0373a02347c31479aa0bfa6cb38f6cb5371fae8d5999319ed334a3b6_1 phases=1 bus1=2080618-6478499.1.4 conn=wye kv=0.1270 pf=1 pmpp=0.40 kva=0.40 irradiance=1 temperature=25 %cutin=20 %cutout=20 effcurve=MyEff P-TCurve=MyPvsT Daily=IRRAD_DIA TDaily=TEMP_DIA
New PVSystem.GD_d0822f8e0373a02347c31479aa0bfa6cb38f6cb5371fae8d5999319ed334a3b6_2 phases=1 bus1=2080618-6478499.2.4 conn=wye kv=0.1270 pf=1 pmpp=0.40 kva=0.40 irradiance=1 temperature=25 %cutin=20 %cutout=20 effcurve=MyEff P-TCurve=MyPvsT Daily=IRRAD_DIA TDaily=TEMP_DIA
New PVSystem.GD_d0822f8e0373a02347c31479aa0bfa6cb38f6cb5371fae8d5999319ed334a3b6_3 phases=1 bus1=2080618-6478499.3.4 conn=wye kv=0.1270 pf=1 pmpp=0.40 kva=0.40 irradiance=1 temperature=25 %cutin=20 %cutout=20 effcurve=MyEff P-TCurve=MyPvsT Daily=IRRAD_DIA TDaily=TEMP_DIA
New PVSystem.GD_f4008bd9beb5526c49f8f1cae01b8113b7b2f93ab0df60a922c668e6841f9144_1 phases=1 bus1=2080618-6478499.1.4 conn=wye kv=0.1270 pf=1 pmpp=1.16 kva=1.16 irradiance=1 temperature=25 %cutin=20 %cutout=20 effcurve=MyEff P-TCurve=MyPvsT Daily=IRRAD_DIA TDaily=TEMP_DIA
New PVSystem.GD_f4008bd9beb5526c49f8f1cae01b8113b7b2f93ab0df60a922c668e6841f9144_2 phases=1 bus1=2080618-6478499.2.4 conn=wye kv=0.1270 pf=1 pmpp=1.16 kva=1.16 irradiance=1 temperature=25 %cutin=20 %cutout=20 effcurve=MyEff P-TCurve=MyPvsT Daily=IRRAD_DIA TDaily=TEMP_DIA
New PVSystem.GD_f4008bd9beb5526c49f8f1cae01b8113b7b2f93ab0df60a922c668e6841f9144_3 phases=1 bus1=2080618-6478499.3.4 conn=wye kv=0.1270 pf=1 pmpp=1.16 kva=1.16 irradiance=1 temperature=25 %cutin=20 %cutout=20 effcurve=MyEff P-TCurve=MyPvsT Daily=IRRAD_DIA TDaily=TEMP_DIA
New PVSystem.GD_fdc087046b3edef2e6481ad743f501b7ad52d6972cd1108ba5617bc0d55f877a_1 phases=1 bus1=2080618-6478499.1.4 conn=wye kv=0.1270 pf=1 pmpp=1.03 kva=1.03 irradiance=1 temperature=25 %cutin=20 %cutout=20 effcurve=MyEff P-TCurve=MyPvsT Daily=IRRAD_DIA TDaily=TEMP_DIA
New PVSystem.GD_fdc087046b3edef2e6481ad743f501b7ad52d6972cd1108ba5617bc0d55f877a_2 phases=1 bus1=2080618-6478499.2.4 conn=wye kv=0.1270 pf=1 pmpp=1.03 kva=1.03 irradiance=1 temperature=25 %cutin=20 %cutout=20 effcurve=MyEff P-TCurve=MyPvsT Daily=IRRAD_DIA TDaily=TEMP_DIA
New PVSystem.GD_fdc087046b3edef2e6481ad743f501b7ad52d6972cd1108ba5617bc0d55f877a_3 phases=1 bus1=2080618-6478499.3.4 conn=wye kv=0.1270 pf=1 pmpp=1.03 kva=1.03 irradiance=1 temperature=25 %cutin=20 %cutout=20 effcurve=MyEff P-TCurve=MyPvsT Daily=IRRAD_DIA TDaily=TEMP_DIA
New PVSystem.GD_1d07bec5c8d48dbe0f9853a6d46f1054b2933e1dcf89f2f94d6cfce7108afb36_1 phases=1 bus1=2080618-6478499.1.4 conn=wye kv=0.1270 pf=1 pmpp=0.41 kva=0.41 irradiance=1 temperature=25 %cutin=20 %cutout=20 effcurve=MyEff P-TCurve=MyPvsT Daily=IRRAD_DIA TDaily=TEMP_DIA
New PVSystem.GD_1d07bec5c8d48dbe0f9853a6d46f1054b2933e1dcf89f2f94d6cfce7108afb36_2 phases=1 bus1=2080618-6478499.2.4 conn=wye kv=0.1270 pf=1 pmpp=0.41 kva=0.41 irradiance=1 temperature=25 %cutin=20 %cutout=20 effcurve=MyEff P-TCurve=MyPvsT Daily=IRRAD_DIA TDaily=TEMP_DIA
New PVSystem.GD_1d07bec5c8d48dbe0f9853a6d46f1054b2933e1dcf89f2f94d6cfce7108afb36_3 phases=1 bus1=2080618-6478499.3.4 conn=wye kv=0.1270 pf=1 pmpp=0.41 kva=0.41 irradiance=1 temperature=25 %cutin=20 %cutout=20 effcurve=MyEff P-TCurve=MyPvsT Daily=IRRAD_DIA TDaily=TEMP_DIA
New PVSystem.GD_c8b0bfa1b92714e9fe8d1730cc4fcff12587721172c6fd9af7f8d742628d3a10_1 phases=1 bus1=2080618-6478499.1.4 conn=wye kv=0.1270 pf=1 pmpp=0.65 kva=0.65 irradiance=1 temperature=25 %cutin=20 %cutout=20 effcurve=MyEff P-TCurve=MyPvsT Daily=IRRAD_DIA TDaily=TEMP_DIA
New PVSystem.GD_c8b0bfa1b92714e9fe8d1730cc4fcff12587721172c6fd9af7f8d742628d3a10_2 phases=1 bus1=2080618-6478499.2.4 conn=wye kv=0.1270 pf=1 pmpp=0.65 kva=0.65 irradiance=1 temperature=25 %cutin=20 %cutout=20 effcurve=MyEff P-TCurve=MyPvsT Daily=IRRAD_DIA TDaily=TEMP_DIA
New PVSystem.GD_c8b0bfa1b92714e9fe8d1730cc4fcff12587721172c6fd9af7f8d742628d3a10_3 phases=1 bus1=2080618-6478499.3.4 conn=wye kv=0.1270 pf=1 pmpp=0.65 kva=0.65 irradiance=1 temperature=25 %cutin=20 %cutout=20 effcurve=MyEff P-TCurve=MyPvsT Daily=IRRAD_DIA TDaily=TEMP_DIA
New PVSystem.GD_e2bcde23ea9444f318916591d226833271ab970fb189ea8c0c613265c637274a_1 phases=1 bus1=2080618-6478499.1.4 conn=wye kv=0.1270 pf=1 pmpp=0.66 kva=0.66 irradiance=1 temperature=25 %cutin=20 %cutout=20 effcurve=MyEff P-TCurve=MyPvsT Daily=IRRAD_DIA TDaily=TEMP_DIA
New PVSystem.GD_e2bcde23ea9444f318916591d226833271ab970fb189ea8c0c613265c637274a_2 phases=1 bus1=2080618-6478499.2.4 conn=wye kv=0.1270 pf=1 pmpp=0.66 kva=0.66 irradiance=1 temperature=25 %cutin=20 %cutout=20 effcurve=MyEff P-TCurve=MyPvsT Daily=IRRAD_DIA TDaily=TEMP_DIA
New PVSystem.GD_e2bcde23ea9444f318916591d226833271ab970fb189ea8c0c613265c637274a_3 phases=1 bus1=2080618-6478499.3.4 conn=wye kv=0.1270 pf=1 pmpp=0.66 kva=0.66 irradiance=1 temperature=25 %cutin=20 %cutout=20 effcurve=MyEff P-TCurve=MyPvsT Daily=IRRAD_DIA TDaily=TEMP_DIA
New PVSystem.GD_b96b0bc58dc7fef52c0ec423606d1ba086bed0c4726721c843a2cb5d165da660_1 phases=1 bus1=2080618-6478499.1.4 conn=wye kv=0.1270 pf=1 pmpp=0.21 kva=0.21 irradiance=1 temperature=25 %cutin=20 %cutout=20 effcurve=MyEff P-TCurve=MyPvsT Daily=IRRAD_DIA TDaily=TEMP_DIA
New PVSystem.GD_b96b0bc58dc7fef52c0ec423606d1ba086bed0c4726721c843a2cb5d165da660_2 phases=1 bus1=2080618-6478499.2.4 conn=wye kv=0.1270 pf=1 pmpp=0.21 kva=0.21 irradiance=1 temperature=25 %cutin=20 %cutout=20 effcurve=MyEff P-TCurve=MyPvsT Daily=IRRAD_DIA TDaily=TEMP_DIA
New PVSystem.GD_b96b0bc58dc7fef52c0ec423606d1ba086bed0c4726721c843a2cb5d165da660_3 phases=1 bus1=2080618-6478499.3.4 conn=wye kv=0.1270 pf=1 pmpp=0.21 kva=0.21 irradiance=1 temperature=25 %cutin=20 %cutout=20 effcurve=MyEff P-TCurve=MyPvsT Daily=IRRAD_DIA TDaily=TEMP_DIA
New PVSystem.GD_62bda194270c8a3e02b65bcc183dba4bab32591f4b55f209dc78903b776c55bc_1 phases=1 bus1=2080618-6478499.1.4 conn=wye kv=0.1270 pf=1 pmpp=0.72 kva=0.72 irradiance=1 temperature=25 %cutin=20 %cutout=20 effcurve=MyEff P-TCurve=MyPvsT Daily=IRRAD_DIA TDaily=TEMP_DIA
New PVSystem.GD_62bda194270c8a3e02b65bcc183dba4bab32591f4b55f209dc78903b776c55bc_2 phases=1 bus1=2080618-6478499.2.4 conn=wye kv=0.1270 pf=1 pmpp=0.72 kva=0.72 irradiance=1 temperature=25 %cutin=20 %cutout=20 effcurve=MyEff P-TCurve=MyPvsT Daily=IRRAD_DIA TDaily=TEMP_DIA
New PVSystem.GD_62bda194270c8a3e02b65bcc183dba4bab32591f4b55f209dc78903b776c55bc_3 phases=1 bus1=2080618-6478499.3.4 conn=wye kv=0.1270 pf=1 pmpp=0.72 kva=0.72 irradiance=1 temperature=25 %cutin=20 %cutout=20 effcurve=MyEff P-TCurve=MyPvsT Daily=IRRAD_DIA TDaily=TEMP_DIA
New PVSystem.GD_750b825af78c2de36e48f959b53a4d31036f974e811d2be9b10c068c6e6d24f8_1 phases=1 bus1=2080618-6478499.1.4 conn=wye kv=0.1270 pf=1 pmpp=0.48 kva=0.48 irradiance=1 temperature=25 %cutin=20 %cutout=20 effcurve=MyEff P-TCurve=MyPvsT Daily=IRRAD_DIA TDaily=TEMP_DIA
New PVSystem.GD_750b825af78c2de36e48f959b53a4d31036f974e811d2be9b10c068c6e6d24f8_2 phases=1 bus1=2080618-6478499.2.4 conn=wye kv=0.1270 pf=1 pmpp=0.48 kva=0.48 irradiance=1 temperature=25 %cutin=20 %cutout=20 effcurve=MyEff P-TCurve=MyPvsT Daily=IRRAD_DIA TDaily=TEMP_DIA
New PVSystem.GD_750b825af78c2de36e48f959b53a4d31036f974e811d2be9b10c068c6e6d24f8_3 phases=1 bus1=2080618-6478499.3.4 conn=wye kv=0.1270 pf=1 pmpp=0.48 kva=0.48 irradiance=1 temperature=25 %cutin=20 %cutout=20 effcurve=MyEff P-TCurve=MyPvsT Daily=IRRAD_DIA TDaily=TEMP_DIA
New PVSystem.GD_cd45ca6c4e5721c345afdd58ee95c91a1ebd41d10db55dd1488a0fd5d813a7e9_1 phases=1 bus1=2080618-6478499.1.4 conn=wye kv=0.1270 pf=1 pmpp=0.66 kva=0.66 irradiance=1 temperature=25 %cutin=20 %cutout=20 effcurve=MyEff P-TCurve=MyPvsT Daily=IRRAD_DIA TDaily=TEMP_DIA
New PVSystem.GD_cd45ca6c4e5721c345afdd58ee95c91a1ebd41d10db55dd1488a0fd5d813a7e9_2 phases=1 bus1=2080618-6478499.2.4 conn=wye kv=0.1270 pf=1 pmpp=0.66 kva=0.66 irradiance=1 temperature=25 %cutin=20 %cutout=20 effcurve=MyEff P-TCurve=MyPvsT Daily=IRRAD_DIA TDaily=TEMP_DIA
New PVSystem.GD_cd45ca6c4e5721c345afdd58ee95c91a1ebd41d10db55dd1488a0fd5d813a7e9_3 phases=1 bus1=2080618-6478499.3.4 conn=wye kv=0.1270 pf=1 pmpp=0.66 kva=0.66 irradiance=1 temperature=25 %cutin=20 %cutout=20 effcurve=MyEff P-TCurve=MyPvsT Daily=IRRAD_DIA TDaily=TEMP_DIA
New PVSystem.GD_a27994a89562a6082ad1d28290275e6c784bab617e258f98a8b1da5efce7b47a_1 phases=1 bus1=2080618-6478499.1.4 conn=wye kv=0.1270 pf=1 pmpp=0.69 kva=0.69 irradiance=1 temperature=25 %cutin=20 %cutout=20 effcurve=MyEff P-TCurve=MyPvsT Daily=IRRAD_DIA TDaily=TEMP_DIA
New PVSystem.GD_a27994a89562a6082ad1d28290275e6c784bab617e258f98a8b1da5efce7b47a_2 phases=1 bus1=2080618-6478499.2.4 conn=wye kv=0.1270 pf=1 pmpp=0.69 kva=0.69 irradiance=1 temperature=25 %cutin=20 %cutout=20 effcurve=MyEff P-TCurve=MyPvsT Daily=IRRAD_DIA TDaily=TEMP_DIA
New PVSystem.GD_a27994a89562a6082ad1d28290275e6c784bab617e258f98a8b1da5efce7b47a_3 phases=1 bus1=2080618-6478499.3.4 conn=wye kv=0.1270 pf=1 pmpp=0.69 kva=0.69 irradiance=1 temperature=25 %cutin=20 %cutout=20 effcurve=MyEff P-TCurve=MyPvsT Daily=IRRAD_DIA TDaily=TEMP_DIA
New PVSystem.GD_8f130dc9ccf9544dca70cd49b075bd4e513f72e1714cf0c0cfd345ab0eb76379_1 phases=1 bus1=2080618-6478499.1.4 conn=wye kv=0.1270 pf=1 pmpp=0.31 kva=0.31 irradiance=1 temperature=25 %cutin=20 %cutout=20 effcurve=MyEff P-TCurve=MyPvsT Daily=IRRAD_DIA TDaily=TEMP_DIA
New PVSystem.GD_8f130dc9ccf9544dca70cd49b075bd4e513f72e1714cf0c0cfd345ab0eb76379_2 phases=1 bus1=2080618-6478499.2.4 conn=wye kv=0.1270 pf=1 pmpp=0.31 kva=0.31 irradiance=1 temperature=25 %cutin=20 %cutout=20 effcurve=MyEff P-TCurve=MyPvsT Daily=IRRAD_DIA TDaily=TEMP_DIA
New PVSystem.GD_8f130dc9ccf9544dca70cd49b075bd4e513f72e1714cf0c0cfd345ab0eb76379_3 phases=1 bus1=2080618-6478499.3.4 conn=wye kv=0.1270 pf=1 pmpp=0.31 kva=0.31 irradiance=1 temperature=25 %cutin=20 %cutout=20 effcurve=MyEff P-TCurve=MyPvsT Daily=IRRAD_DIA TDaily=TEMP_DIA
New PVSystem.GD_34ee8fdfe83a59101616c625d510257f29b4927a2dc1d35f570b39578f5c6b15_1 phases=1 bus1=2080618-6478499.1.4 conn=wye kv=0.1270 pf=1 pmpp=0.54 kva=0.54 irradiance=1 temperature=25 %cutin=20 %cutout=20 effcurve=MyEff P-TCurve=MyPvsT Daily=IRRAD_DIA TDaily=TEMP_DIA
New PVSystem.GD_34ee8fdfe83a59101616c625d510257f29b4927a2dc1d35f570b39578f5c6b15_2 phases=1 bus1=2080618-6478499.2.4 conn=wye kv=0.1270 pf=1 pmpp=0.54 kva=0.54 irradiance=1 temperature=25 %cutin=20 %cutout=20 effcurve=MyEff P-TCurve=MyPvsT Daily=IRRAD_DIA TDaily=TEMP_DIA
New PVSystem.GD_34ee8fdfe83a59101616c625d510257f29b4927a2dc1d35f570b39578f5c6b15_3 phases=1 bus1=2080618-6478499.3.4 conn=wye kv=0.1270 pf=1 pmpp=0.54 kva=0.54 irradiance=1 temperature=25 %cutin=20 %cutout=20 effcurve=MyEff P-TCurve=MyPvsT Daily=IRRAD_DIA TDaily=TEMP_DIA
New PVSystem.GD_254a736d9c06b12abed2a633948cb7b2932f25891abdcb171e502de5bcd05756_1 phases=1 bus1=2080618-6478499.1.4 conn=wye kv=0.1270 pf=1 pmpp=0.59 kva=0.59 irradiance=1 temperature=25 %cutin=20 %cutout=20 effcurve=MyEff P-TCurve=MyPvsT Daily=IRRAD_DIA TDaily=TEMP_DIA
New PVSystem.GD_254a736d9c06b12abed2a633948cb7b2932f25891abdcb171e502de5bcd05756_2 phases=1 bus1=2080618-6478499.2.4 conn=wye kv=0.1270 pf=1 pmpp=0.59 kva=0.59 irradiance=1 temperature=25 %cutin=20 %cutout=20 effcurve=MyEff P-TCurve=MyPvsT Daily=IRRAD_DIA TDaily=TEMP_DIA
New PVSystem.GD_254a736d9c06b12abed2a633948cb7b2932f25891abdcb171e502de5bcd05756_3 phases=1 bus1=2080618-6478499.3.4 conn=wye kv=0.1270 pf=1 pmpp=0.59 kva=0.59 irradiance=1 temperature=25 %cutin=20 %cutout=20 effcurve=MyEff P-TCurve=MyPvsT Daily=IRRAD_DIA TDaily=TEMP_DIA
New PVSystem.GD_e21a2f928c6bb790706dadcc68c70b9e67a17d89bbf5e2e773dde19c0ff12ba2_1 phases=1 bus1=2080618-6478499.1.4 conn=wye kv=0.1270 pf=1 pmpp=0.98 kva=0.98 irradiance=1 temperature=25 %cutin=20 %cutout=20 effcurve=MyEff P-TCurve=MyPvsT Daily=IRRAD_DIA TDaily=TEMP_DIA
New PVSystem.GD_e21a2f928c6bb790706dadcc68c70b9e67a17d89bbf5e2e773dde19c0ff12ba2_2 phases=1 bus1=2080618-6478499.2.4 conn=wye kv=0.1270 pf=1 pmpp=0.98 kva=0.98 irradiance=1 temperature=25 %cutin=20 %cutout=20 effcurve=MyEff P-TCurve=MyPvsT Daily=IRRAD_DIA TDaily=TEMP_DIA
New PVSystem.GD_e21a2f928c6bb790706dadcc68c70b9e67a17d89bbf5e2e773dde19c0ff12ba2_3 phases=1 bus1=2080618-6478499.3.4 conn=wye kv=0.1270 pf=1 pmpp=0.98 kva=0.98 irradiance=1 temperature=25 %cutin=20 %cutout=20 effcurve=MyEff P-TCurve=MyPvsT Daily=IRRAD_DIA TDaily=TEMP_DIA
New PVSystem.GD_1fe8a0d8b4b9eef003174d714a028fdf1e7a913a7421f8f3ec2919379dd816f5_1 phases=1 bus1=2716364-10561651.1.4 conn=wye kv=0.1270 pf=1 pmpp=2.84 kva=2.84 irradiance=1 temperature=25 %cutin=20 %cutout=20 effcurve=MyEff P-TCurve=MyPvsT Daily=IRRAD_DIA TDaily=TEMP_DIA
New PVSystem.GD_1fe8a0d8b4b9eef003174d714a028fdf1e7a913a7421f8f3ec2919379dd816f5_2 phases=1 bus1=2716364-10561651.2.4 conn=wye kv=0.1270 pf=1 pmpp=2.84 kva=2.84 irradiance=1 temperature=25 %cutin=20 %cutout=20 effcurve=MyEff P-TCurve=MyPvsT Daily=IRRAD_DIA TDaily=TEMP_DIA
New PVSystem.GD_1fe8a0d8b4b9eef003174d714a028fdf1e7a913a7421f8f3ec2919379dd816f5_3 phases=1 bus1=2716364-10561651.3.4 conn=wye kv=0.1270 pf=1 pmpp=2.84 kva=2.84 irradiance=1 temperature=25 %cutin=20 %cutout=20 effcurve=MyEff P-TCurve=MyPvsT Daily=IRRAD_DIA TDaily=TEMP_DIA
New PVSystem.GD_a2a60099779371ae47094aaee9f5baae0a83c99e295cb1e97c85a7855350d884_1 phases=1 bus1=2716364-10561651.1.4 conn=wye kv=0.1270 pf=1 pmpp=0.77 kva=0.77 irradiance=1 temperature=25 %cutin=20 %cutout=20 effcurve=MyEff P-TCurve=MyPvsT Daily=IRRAD_DIA TDaily=TEMP_DIA
New PVSystem.GD_a2a60099779371ae47094aaee9f5baae0a83c99e295cb1e97c85a7855350d884_2 phases=1 bus1=2716364-10561651.2.4 conn=wye kv=0.1270 pf=1 pmpp=0.77 kva=0.77 irradiance=1 temperature=25 %cutin=20 %cutout=20 effcurve=MyEff P-TCurve=MyPvsT Daily=IRRAD_DIA TDaily=TEMP_DIA
New PVSystem.GD_a2a60099779371ae47094aaee9f5baae0a83c99e295cb1e97c85a7855350d884_3 phases=1 bus1=2716364-10561651.3.4 conn=wye kv=0.1270 pf=1 pmpp=0.77 kva=0.77 irradiance=1 temperature=25 %cutin=20 %cutout=20 effcurve=MyEff P-TCurve=MyPvsT Daily=IRRAD_DIA TDaily=TEMP_DIA
New PVSystem.GD_fd09f486d6ce52a208e2273e4d6253bbbea0937eee589ac97a3f81820e9735a9_1 phases=1 bus1=2716364-10561651.1.4 conn=wye kv=0.1270 pf=1 pmpp=0.42 kva=0.42 irradiance=1 temperature=25 %cutin=20 %cutout=20 effcurve=MyEff P-TCurve=MyPvsT Daily=IRRAD_DIA TDaily=TEMP_DIA
New PVSystem.GD_fd09f486d6ce52a208e2273e4d6253bbbea0937eee589ac97a3f81820e9735a9_2 phases=1 bus1=2716364-10561651.2.4 conn=wye kv=0.1270 pf=1 pmpp=0.42 kva=0.42 irradiance=1 temperature=25 %cutin=20 %cutout=20 effcurve=MyEff P-TCurve=MyPvsT Daily=IRRAD_DIA TDaily=TEMP_DIA
New PVSystem.GD_fd09f486d6ce52a208e2273e4d6253bbbea0937eee589ac97a3f81820e9735a9_3 phases=1 bus1=2716364-10561651.3.4 conn=wye kv=0.1270 pf=1 pmpp=0.42 kva=0.42 irradiance=1 temperature=25 %cutin=20 %cutout=20 effcurve=MyEff P-TCurve=MyPvsT Daily=IRRAD_DIA TDaily=TEMP_DIA
New PVSystem.GD_fbc51356f59b43e14f3c5c3ca77a8f39da561b2e6870bb72f243af363151891e_1 phases=1 bus1=2716364-10561651.1.4 conn=wye kv=0.1270 pf=1 pmpp=1.28 kva=1.28 irradiance=1 temperature=25 %cutin=20 %cutout=20 effcurve=MyEff P-TCurve=MyPvsT Daily=IRRAD_DIA TDaily=TEMP_DIA
New PVSystem.GD_fbc51356f59b43e14f3c5c3ca77a8f39da561b2e6870bb72f243af363151891e_2 phases=1 bus1=2716364-10561651.2.4 conn=wye kv=0.1270 pf=1 pmpp=1.28 kva=1.28 irradiance=1 temperature=25 %cutin=20 %cutout=20 effcurve=MyEff P-TCurve=MyPvsT Daily=IRRAD_DIA TDaily=TEMP_DIA
New PVSystem.GD_fbc51356f59b43e14f3c5c3ca77a8f39da561b2e6870bb72f243af363151891e_3 phases=1 bus1=2716364-10561651.3.4 conn=wye kv=0.1270 pf=1 pmpp=1.28 kva=1.28 irradiance=1 temperature=25 %cutin=20 %cutout=20 effcurve=MyEff P-TCurve=MyPvsT Daily=IRRAD_DIA TDaily=TEMP_DIA
New PVSystem.GD_a5adaeedfa6118308b8fb9bec943ad4ab1e55077623ec9086cd37e622ebc5664_1 phases=1 bus1=2080620-6477572.1.4 conn=wye kv=0.1270 pf=1 pmpp=1.58 kva=1.58 irradiance=1 temperature=25 %cutin=20 %cutout=20 effcurve=MyEff P-TCurve=MyPvsT Daily=IRRAD_DIA TDaily=TEMP_DIA
New PVSystem.GD_a5adaeedfa6118308b8fb9bec943ad4ab1e55077623ec9086cd37e622ebc5664_2 phases=1 bus1=2080620-6477572.2.4 conn=wye kv=0.1270 pf=1 pmpp=1.58 kva=1.58 irradiance=1 temperature=25 %cutin=20 %cutout=20 effcurve=MyEff P-TCurve=MyPvsT Daily=IRRAD_DIA TDaily=TEMP_DIA
New PVSystem.GD_a5adaeedfa6118308b8fb9bec943ad4ab1e55077623ec9086cd37e622ebc5664_3 phases=1 bus1=2080620-6477572.3.4 conn=wye kv=0.1270 pf=1 pmpp=1.58 kva=1.58 irradiance=1 temperature=25 %cutin=20 %cutout=20 effcurve=MyEff P-TCurve=MyPvsT Daily=IRRAD_DIA TDaily=TEMP_DIA
New PVSystem.GD_3b5859fe4315a7cb32619635d1ab37b01be45e5f2f3d22ae3d114e7af933d290_1 phases=1 bus1=2080620-6477572.1.4 conn=wye kv=0.1270 pf=1 pmpp=0.56 kva=0.56 irradiance=1 temperature=25 %cutin=20 %cutout=20 effcurve=MyEff P-TCurve=MyPvsT Daily=IRRAD_DIA TDaily=TEMP_DIA
New PVSystem.GD_3b5859fe4315a7cb32619635d1ab37b01be45e5f2f3d22ae3d114e7af933d290_2 phases=1 bus1=2080620-6477572.2.4 conn=wye kv=0.1270 pf=1 pmpp=0.56 kva=0.56 irradiance=1 temperature=25 %cutin=20 %cutout=20 effcurve=MyEff P-TCurve=MyPvsT Daily=IRRAD_DIA TDaily=TEMP_DIA
New PVSystem.GD_3b5859fe4315a7cb32619635d1ab37b01be45e5f2f3d22ae3d114e7af933d290_3 phases=1 bus1=2080620-6477572.3.4 conn=wye kv=0.1270 pf=1 pmpp=0.56 kva=0.56 irradiance=1 temperature=25 %cutin=20 %cutout=20 effcurve=MyEff P-TCurve=MyPvsT Daily=IRRAD_DIA TDaily=TEMP_DIA
New PVSystem.GD_3a175aa9e446c553083926c98c66aee1c50611918c6b32cbb363e543a9667a31_1 phases=1 bus1=2080620-6477572.1.4 conn=wye kv=0.1270 pf=1 pmpp=0.62 kva=0.62 irradiance=1 temperature=25 %cutin=20 %cutout=20 effcurve=MyEff P-TCurve=MyPvsT Daily=IRRAD_DIA TDaily=TEMP_DIA
New PVSystem.GD_3a175aa9e446c553083926c98c66aee1c50611918c6b32cbb363e543a9667a31_2 phases=1 bus1=2080620-6477572.2.4 conn=wye kv=0.1270 pf=1 pmpp=0.62 kva=0.62 irradiance=1 temperature=25 %cutin=20 %cutout=20 effcurve=MyEff P-TCurve=MyPvsT Daily=IRRAD_DIA TDaily=TEMP_DIA
New PVSystem.GD_3a175aa9e446c553083926c98c66aee1c50611918c6b32cbb363e543a9667a31_3 phases=1 bus1=2080620-6477572.3.4 conn=wye kv=0.1270 pf=1 pmpp=0.62 kva=0.62 irradiance=1 temperature=25 %cutin=20 %cutout=20 effcurve=MyEff P-TCurve=MyPvsT Daily=IRRAD_DIA TDaily=TEMP_DIA
New PVSystem.GD_be1d7ffbaf56219b73f375c37b21d35c8ee5c1acd511a3a7b5b9c69c378aeb32_1 phases=1 bus1=2080620-6477572.1.4 conn=wye kv=0.1270 pf=1 pmpp=0.41 kva=0.41 irradiance=1 temperature=25 %cutin=20 %cutout=20 effcurve=MyEff P-TCurve=MyPvsT Daily=IRRAD_DIA TDaily=TEMP_DIA
New PVSystem.GD_be1d7ffbaf56219b73f375c37b21d35c8ee5c1acd511a3a7b5b9c69c378aeb32_2 phases=1 bus1=2080620-6477572.2.4 conn=wye kv=0.1270 pf=1 pmpp=0.41 kva=0.41 irradiance=1 temperature=25 %cutin=20 %cutout=20 effcurve=MyEff P-TCurve=MyPvsT Daily=IRRAD_DIA TDaily=TEMP_DIA
New PVSystem.GD_be1d7ffbaf56219b73f375c37b21d35c8ee5c1acd511a3a7b5b9c69c378aeb32_3 phases=1 bus1=2080620-6477572.3.4 conn=wye kv=0.1270 pf=1 pmpp=0.41 kva=0.41 irradiance=1 temperature=25 %cutin=20 %cutout=20 effcurve=MyEff P-TCurve=MyPvsT Daily=IRRAD_DIA TDaily=TEMP_DIA
New PVSystem.GD_a5874fffedd4319f2bc21c53f3dcb799a45d37272d7243e8467597fe69fd5d62_1 phases=1 bus1=2095353-6600029.1.4 conn=wye kv=0.1270 pf=1 pmpp=1.22 kva=1.22 irradiance=1 temperature=25 %cutin=20 %cutout=20 effcurve=MyEff P-TCurve=MyPvsT Daily=IRRAD_DIA TDaily=TEMP_DIA
New PVSystem.GD_a5874fffedd4319f2bc21c53f3dcb799a45d37272d7243e8467597fe69fd5d62_2 phases=1 bus1=2095353-6600029.2.4 conn=wye kv=0.1270 pf=1 pmpp=1.22 kva=1.22 irradiance=1 temperature=25 %cutin=20 %cutout=20 effcurve=MyEff P-TCurve=MyPvsT Daily=IRRAD_DIA TDaily=TEMP_DIA
New PVSystem.GD_a5874fffedd4319f2bc21c53f3dcb799a45d37272d7243e8467597fe69fd5d62_3 phases=1 bus1=2095353-6600029.3.4 conn=wye kv=0.1270 pf=1 pmpp=1.22 kva=1.22 irradiance=1 temperature=25 %cutin=20 %cutout=20 effcurve=MyEff P-TCurve=MyPvsT Daily=IRRAD_DIA TDaily=TEMP_DIA
New PVSystem.GD_9038bf97bf3da1a4907a5f9889fb8ccfec8898cc0c4e1ce0c29df2eb826c277b_1 phases=1 bus1=2095353-6600029.1.4 conn=wye kv=0.1270 pf=1 pmpp=0.45 kva=0.45 irradiance=1 temperature=25 %cutin=20 %cutout=20 effcurve=MyEff P-TCurve=MyPvsT Daily=IRRAD_DIA TDaily=TEMP_DIA
New PVSystem.GD_9038bf97bf3da1a4907a5f9889fb8ccfec8898cc0c4e1ce0c29df2eb826c277b_2 phases=1 bus1=2095353-6600029.2.4 conn=wye kv=0.1270 pf=1 pmpp=0.45 kva=0.45 irradiance=1 temperature=25 %cutin=20 %cutout=20 effcurve=MyEff P-TCurve=MyPvsT Daily=IRRAD_DIA TDaily=TEMP_DIA
New PVSystem.GD_9038bf97bf3da1a4907a5f9889fb8ccfec8898cc0c4e1ce0c29df2eb826c277b_3 phases=1 bus1=2095353-6600029.3.4 conn=wye kv=0.1270 pf=1 pmpp=0.45 kva=0.45 irradiance=1 temperature=25 %cutin=20 %cutout=20 effcurve=MyEff P-TCurve=MyPvsT Daily=IRRAD_DIA TDaily=TEMP_DIA
New PVSystem.GD_fd666a93b467c20d8aa6b374c663f0b05aade4d5983c9abadbf69a4111c28cbe_1 phases=1 bus1=2083394-6502168.1.4 conn=wye kv=0.1270 pf=1 pmpp=1.17 kva=1.17 irradiance=1 temperature=25 %cutin=20 %cutout=20 effcurve=MyEff P-TCurve=MyPvsT Daily=IRRAD_DIA TDaily=TEMP_DIA
New PVSystem.GD_fd666a93b467c20d8aa6b374c663f0b05aade4d5983c9abadbf69a4111c28cbe_2 phases=1 bus1=2083394-6502168.2.4 conn=wye kv=0.1270 pf=1 pmpp=1.17 kva=1.17 irradiance=1 temperature=25 %cutin=20 %cutout=20 effcurve=MyEff P-TCurve=MyPvsT Daily=IRRAD_DIA TDaily=TEMP_DIA
New PVSystem.GD_fd666a93b467c20d8aa6b374c663f0b05aade4d5983c9abadbf69a4111c28cbe_3 phases=1 bus1=2083394-6502168.3.4 conn=wye kv=0.1270 pf=1 pmpp=1.17 kva=1.17 irradiance=1 temperature=25 %cutin=20 %cutout=20 effcurve=MyEff P-TCurve=MyPvsT Daily=IRRAD_DIA TDaily=TEMP_DIA
New PVSystem.GD_fd84aef97b3811be1d0a6fb34d6ac1eb2ae858f1855a4902b562d45f0f864e1e_1 phases=1 bus1=2083394-6502168.1.4 conn=wye kv=0.1270 pf=1 pmpp=1.95 kva=1.95 irradiance=1 temperature=25 %cutin=20 %cutout=20 effcurve=MyEff P-TCurve=MyPvsT Daily=IRRAD_DIA TDaily=TEMP_DIA
New PVSystem.GD_fd84aef97b3811be1d0a6fb34d6ac1eb2ae858f1855a4902b562d45f0f864e1e_2 phases=1 bus1=2083394-6502168.2.4 conn=wye kv=0.1270 pf=1 pmpp=1.95 kva=1.95 irradiance=1 temperature=25 %cutin=20 %cutout=20 effcurve=MyEff P-TCurve=MyPvsT Daily=IRRAD_DIA TDaily=TEMP_DIA
New PVSystem.GD_fd84aef97b3811be1d0a6fb34d6ac1eb2ae858f1855a4902b562d45f0f864e1e_3 phases=1 bus1=2083394-6502168.3.4 conn=wye kv=0.1270 pf=1 pmpp=1.95 kva=1.95 irradiance=1 temperature=25 %cutin=20 %cutout=20 effcurve=MyEff P-TCurve=MyPvsT Daily=IRRAD_DIA TDaily=TEMP_DIA
New PVSystem.GD_013164c25657e3c5196894d070506da5b08dc48b3aa164f6545a75b7f5cbe021_1 phases=1 bus1=2083394-6502168.1.4 conn=wye kv=0.1270 pf=1 pmpp=1.04 kva=1.04 irradiance=1 temperature=25 %cutin=20 %cutout=20 effcurve=MyEff P-TCurve=MyPvsT Daily=IRRAD_DIA TDaily=TEMP_DIA
New PVSystem.GD_013164c25657e3c5196894d070506da5b08dc48b3aa164f6545a75b7f5cbe021_2 phases=1 bus1=2083394-6502168.2.4 conn=wye kv=0.1270 pf=1 pmpp=1.04 kva=1.04 irradiance=1 temperature=25 %cutin=20 %cutout=20 effcurve=MyEff P-TCurve=MyPvsT Daily=IRRAD_DIA TDaily=TEMP_DIA
New PVSystem.GD_013164c25657e3c5196894d070506da5b08dc48b3aa164f6545a75b7f5cbe021_3 phases=1 bus1=2083394-6502168.3.4 conn=wye kv=0.1270 pf=1 pmpp=1.04 kva=1.04 irradiance=1 temperature=25 %cutin=20 %cutout=20 effcurve=MyEff P-TCurve=MyPvsT Daily=IRRAD_DIA TDaily=TEMP_DIA
New PVSystem.GD_68703991eac35c2ec626419d3710ef64040cb80977e5ce32ef0cd01e917f4bed_1 phases=1 bus1=2083394-6502168.1.4 conn=wye kv=0.1270 pf=1 pmpp=0.41 kva=0.41 irradiance=1 temperature=25 %cutin=20 %cutout=20 effcurve=MyEff P-TCurve=MyPvsT Daily=IRRAD_DIA TDaily=TEMP_DIA
New PVSystem.GD_68703991eac35c2ec626419d3710ef64040cb80977e5ce32ef0cd01e917f4bed_2 phases=1 bus1=2083394-6502168.2.4 conn=wye kv=0.1270 pf=1 pmpp=0.41 kva=0.41 irradiance=1 temperature=25 %cutin=20 %cutout=20 effcurve=MyEff P-TCurve=MyPvsT Daily=IRRAD_DIA TDaily=TEMP_DIA
New PVSystem.GD_68703991eac35c2ec626419d3710ef64040cb80977e5ce32ef0cd01e917f4bed_3 phases=1 bus1=2083394-6502168.3.4 conn=wye kv=0.1270 pf=1 pmpp=0.41 kva=0.41 irradiance=1 temperature=25 %cutin=20 %cutout=20 effcurve=MyEff P-TCurve=MyPvsT Daily=IRRAD_DIA TDaily=TEMP_DIA
New PVSystem.GD_b91cd00a1cc9bff121d1990e8f13cfb23964b721faf529126f7ddbd314dc36fd_1 phases=1 bus1=2083394-6502168.1.4 conn=wye kv=0.1270 pf=1 pmpp=0.55 kva=0.55 irradiance=1 temperature=25 %cutin=20 %cutout=20 effcurve=MyEff P-TCurve=MyPvsT Daily=IRRAD_DIA TDaily=TEMP_DIA
New PVSystem.GD_b91cd00a1cc9bff121d1990e8f13cfb23964b721faf529126f7ddbd314dc36fd_2 phases=1 bus1=2083394-6502168.2.4 conn=wye kv=0.1270 pf=1 pmpp=0.55 kva=0.55 irradiance=1 temperature=25 %cutin=20 %cutout=20 effcurve=MyEff P-TCurve=MyPvsT Daily=IRRAD_DIA TDaily=TEMP_DIA
...
